src/test/resources/pst_special/process1/divacaOutage/20260620_1130_FO5_IT0.uct
##C 2007.05.01
##N
##ZIT
IMFTV121 MONFALC.CE g 0 0 252.68     6.7     0.4     8.4     3.4     7.1     7.8     9.6     5.5
IPDRV121 PADRICIANO g 0 0 335.98    86.5    -9.4     1.8     9.4     9.5     3.9     9.5     5.4
IPDRV122 PADRICIANO g 0 0 464.07     5.9     3.8     8.4     3.3     7.3     2.3     4.2     5.5
IRDPVA21 REDIPUGLIA g 0 0 210.49    00.7    65.6     5.5     3.6     5.0     2.1     5.6     0.6
##ZXX
XPA_DI21 DIVJ    211  0 0 077.12  -336.4    -3.3     8.0     0.4     1.4     9.0     9.7     6.4
##L
IMFTV121 IPDRV121 1 0  4.115 16.020   864.17    800 XXXXXXXXXXXX
IMFTV121 IRDPVA21 1 0  7.606  6.270    24.68    716 XXXXXXXXXXXX
IRDPVA21 IPDRV121 1 0  0.479 43.764   126.09    713 XXXXXXXXXXXX
XPA_DI21 IPDRV122 1 0  1.400  0.144    47.76    900 XXXXXXXXXXXX
##T
IPDRV121 IPDRV122 1 0 990.0 797.3  370.  8.858 83.636   -9.002  2.982    928 XXXXXXXXXXXX
##R
IPDRV121 IPDRV122 1                    7.859  54.1 16   0    0. SYMM
